875

	S	5.823094	3.921253	33.388343
	C	2.078996	2.558828	32.372343
	P	8.315831	3.343697	30.914343
	S	7.026480	-0.221907	30.008343
	G	2.339371	0.172028	28.914343
	P	8.703668	-2.154354	27.534343
	S	5.564751	-4.281126	26.628343
	A	2.324627	-1.053242	25.552343
	P	5.785761	-6.830335	24.154343
	S	1.996238	-6.705920	23.248343
	G	0.922496	-2.126482	22.154343
	P	0.676652	-8.898180	20.774343
	S	-2.316008	-6.570101	19.868343
	T	0.247466	-3.414127	18.860343
	P	-4.672153	-7.568043	17.394343
	S	-5.724855	-3.925547	16.488343
	G	-1.701355	-1.489233	15.394343
	P	-8.217593	-3.347991	14.014343
	S	-6.928241	0.217613	13.108343
	A	-2.409623	-0.489303	12.032343
	P	-8.605429	2.150060	10.634343
	S	-5.466512	4.276832	9.728343
	C	-3.013779	1.136996	8.712343
	P	-5.687522	6.826041	7.254343
	S	-1.897999	6.701626	6.348343
	C	-1.759246	2.719765	5.332343
	P	-0.578413	8.893886	3.874343
	S	2.414246	6.565807	2.968343
	A	0.345600	2.486796	1.892343
	P	4.770392	7.563749	0.494343
	S	5.823094	3.921253	-0.411657
	C	2.078996	2.558828	-1.427657
	P	8.315831	3.343697	-2.885657
	S	7.026480	-0.221907	-3.791657
	A	2.507862	0.485009	-4.867657
	P	8.703668	-2.154354	-6.265657
	S	5.564751	-4.281126	-7.171657
	A	2.324627	-1.053242	-8.247657
	P	5.785761	-6.830335	-9.645657
	S	1.996238	-6.705920	-10.551657
	C	1.857485	-2.724059	-11.567657
	P	0.676652	-8.898180	-13.025657
	S	-2.316008	-6.570101	-13.931657
	G	-0.492957	-2.234128	-15.025657
	P	-4.672153	-7.568043	-16.405657
	S	-5.724855	-3.925547	-17.311657
	A	-1.653702	-1.841477	-18.387657
	P	-8.217593	-3.347991	-19.785657
	S	-6.928241	0.217613	-20.691657
	G	-2.241132	-0.176322	-21.785657
	P	-8.605429	2.150060	-23.165657
	S	-5.466512	4.276832	-24.071657
	T	-3.257159	0.863574	-25.079657
	P	-5.687522	6.826041	-26.545657
	S	-1.897999	6.701626	-27.451657
	A	-1.173987	2.185717	-28.527657
	P	-0.578413	8.893886	-29.925657
	S	2.414246	6.565807	-30.831657
	A	0.345600	2.486796	-31.907657
	S	2.414246	-6.570101	-33.391657
	T	-0.149227	-3.414127	-32.383657
	P	4.770392	-7.568043	-30.917657
	S	5.823094	-3.925547	-30.011657
	T	1.894165	-2.879082	-29.003657
	P	8.315831	-3.347991	-27.537657
	S	7.026480	0.217613	-26.631657
	A	2.507862	-0.489303	-25.555657
	P	8.703668	2.150060	-24.157657
	S	5.564751	4.276832	-23.251657
	C	3.112018	1.136996	-22.235657
	P	5.785761	6.826041	-20.777657
	S	1.996238	6.701626	-19.871657
	T	2.215097	2.641617	-18.863657
	P	0.676652	8.893886	-17.397657
	S	-2.316008	6.565807	-16.491657
	C	-0.087782	3.262857	-15.475657
	P	-4.672153	7.563749	-14.017657
	S	-5.724855	3.921253	-13.111657
	G	-1.701355	1.484939	-12.017657
	P	-8.217593	3.343697	-10.637657
	S	-6.928241	-0.221907	-9.731657
	T	-3.134574	1.240852	-8.723657
	P	-8.605429	-2.154354	-7.257657
	S	-5.466512	-4.281126	-6.351657
	T	-3.257159	-0.867868	-5.343657
	P	-5.687522	-6.830335	-3.877657
	S	-1.897999	-6.705920	-2.971657
	G	-0.824257	-2.126482	-1.877657
	P	-0.578413	-8.898180	-0.497657
	S	2.414246	-6.570101	0.408343
	T	-0.149227	-3.414127	1.416343
	P	4.770392	-7.568043	2.882343
	S	5.823094	-3.925547	3.788343
	G	1.799594	-1.489233	4.882343
	P	8.315831	-3.347991	6.262343
	S	7.026480	0.217613	7.168343
	G	2.339371	-0.176322	8.262343
	P	8.703668	2.150060	9.642343
	S	5.564751	4.276832	10.548343
	T	3.355398	0.863574	11.556343
	P	5.785761	6.826041	13.022343
	S	1.996238	6.701626	13.928343
	C	1.857485	2.719765	14.944343
	P	0.676652	8.893886	16.402343
	S	-2.316008	6.565807	17.308343
	A	-0.247361	2.486796	18.384343
	P	-4.672153	7.563749	19.782343
	S	-5.724855	3.921253	20.688343
	C	-1.980757	2.558828	21.704343
	P	-8.217593	3.343697	23.162343
	S	-6.928241	-0.221907	24.068343
	T	-3.134574	1.240852	25.076343
	P	-8.605429	-2.154354	26.542343
	S	-5.466512	-4.281126	27.448343
	C	-3.013779	-1.141290	28.464343
	P	-5.687522	-6.830335	29.922343
	S	-1.897999	-6.705920	30.828343
	G	-0.824257	-2.126482	31.922343
	Na	35.038375	40.449652	-30.372520
	Na	36.044642	-41.666824	-51.453060
	Na	-37.589466	-7.135926	-28.731983
	Na	11.764476	-61.305572	23.663235
	Na	-32.183879	-32.139414	-64.431624
	Na	0.368020	-75.036553	-8.674434
	Na	28.133875	-61.923276	46.501815
	Na	73.932359	71.594550	-33.532478
	Na	-21.461792	24.189760	-34.231170
	Na	40.765091	14.258570	-65.440172
	Na	39.502002	68.273187	-17.037243
	Na	68.028560	-39.906585	-45.465108
	Na	0.546001	-55.021460	66.253747
	Na	35.285278	-23.625478	50.950926
	Na	34.764318	63.330810	53.338996
	Na	-19.592721	-45.116243	-41.663363
	Na	58.521122	-27.184615	59.229976
	Na	29.442570	69.062631	-73.807474
	Na	62.288399	-77.182343	27.122665
	Na	53.784260	52.713595	-40.007815
	Na	61.627453	51.392228	-66.559635
	Na	-50.639150	65.284997	-12.022409
	Na	-36.064060	-20.800470	-1.439090
	Na	50.415699	33.994628	-19.930643
	Na	29.768687	37.663853	-32.822829
	Na	57.636666	-74.506977	-13.570101
	Na	-14.607095	15.796628	23.580397
	Na	33.176979	77.062401	-14.602387
	Na	63.081779	-75.185423	-1.880801
	Na	-29.985207	63.900309	-55.726029
	Na	-19.097764	-70.366958	34.327751
	Na	53.611128	34.227332	44.150093
	Na	-65.114095	6.938555	-44.781586
	Na	72.506445	61.419942	-30.327337
	Na	68.436427	-11.305115	38.038098
	Na	58.632600	26.459911	2.617028
	Na	67.950595	-16.123978	41.280097
	Na	-34.955146	39.144038	-14.701623
	Na	-43.265648	25.593880	69.442114
	Na	-12.285668	-18.650390	-65.716307
	Na	57.348611	-75.055451	0.759062
	Na	-44.981134	-51.276331	-1.841985
	Na	55.613089	16.004911	-22.908338
	Na	-14.702396	-5.943655	22.451144
	Na	-15.913312	-24.438240	-11.089093
	Na	30.721037	65.609370	18.283827
	Na	65.508634	-62.018923	74.520369
	Na	34.812428	18.939259	6.747603
	Na	67.801727	1.486122	66.865810
	Na	-47.264112	-57.793272	-61.128359
	Na	70.715887	-28.638566	50.517750
	Na	-27.217090	36.185992	-52.196579
	Na	24.376503	-29.163565	47.030631
	Na	-76.682355	56.406260	26.140600
	Na	-54.588457	65.272526	64.287238
	Na	67.653590	-33.168827	18.507347
	Na	11.524484	-7.032643	69.276662
	Na	29.113312	22.471546	39.109210
	Na	50.248308	56.000715	-26.995728
	Na	38.492143	-14.197241	-73.940208
	Na	66.292385	70.395267	-72.898331
	Na	-72.018799	68.901128	-2.166993
	Na	-61.449665	11.013052	-30.877474
	Na	-12.046883	23.622859	-63.889080
	Na	-11.672341	75.939926	29.314341
	Na	61.634404	-36.114897	-72.926869
	Na	-28.615668	-19.639789	-5.549746
	Na	48.369064	-7.823854	51.644254
	Na	-68.628008	33.110565	33.801314
	Na	-33.237093	-64.077371	7.855417
	Na	-59.454162	45.254082	56.239201
	Na	-60.489977	-13.103407	1.642643
	Na	-44.565730	-19.518060	-1.185289
	Na	-30.335456	-41.843780	-21.483892
	Na	39.822012	19.811027	-38.744336
	Na	14.554476	23.441857	33.509880
	Na	-4.130118	-35.761026	-1.904118
	Na	52.616508	38.686658	54.169443
	Na	48.830028	-29.033525	39.335597
	Na	-50.036296	45.537777	-65.077285
	Na	29.835781	-71.432557	-8.217066
	Na	-56.519842	64.901194	-17.802093
	Na	17.911455	72.736385	-62.000863
	Na	-58.677768	0.200819	52.121176
	Na	62.644856	74.420579	-36.714744
	Na	38.293072	35.669440	-51.799964
	Na	-59.722672	64.115538	-9.787618
	Na	11.585216	-44.310083	42.436459
	Na	-19.545095	2.178135	-64.354880
	Na	-67.646845	-39.845884	-69.685238
	Na	60.987008	63.952830	-40.432803
	Na	-67.182154	-64.230335	-53.012103
	Na	74.952133	-16.112079	-13.310438
	Na	22.339082	61.267970	9.957794
	Na	-48.101571	-25.488854	22.856150
	Na	72.811675	-40.959826	-4.989635
	Na	4.388177	15.495057	-67.304185
	Na	32.456098	-38.560157	8.609653
	Na	64.577517	-31.134845	49.457608
	Na	-15.877810	-59.927253	-44.855921
	Na	50.227902	43.579879	20.415869
	Na	-9.124208	10.320909	-77.625825
	Na	71.285414	-37.394236	-35.627702
	Na	-56.537346	-69.600760	-66.269293
	Na	68.856659	3.351182	-50.801982
	Na	-24.024119	16.912148	-59.606812
	Na	-69.970850	-71.933510	54.490853
	Na	43.193882	-19.402615	65.356092
	Na	30.612766	-71.800452	-26.841536
	Na	41.143019	11.485456	23.743725
	Na	-72.947510	23.730613	13.097681
	Na	46.681080	0.440955	-26.579736
	Na	-22.744431	21.438758	48.004768
	Na	14.685025	-59.269831	-31.251358
	Na	-75.945549	28.041053	-65.958569
	Na	-24.064221	0.907123	37.614792
	Na	70.557493	-23.603658	32.293962
	Na	-68.388535	8.133737	20.206155
	Na	50.309107	15.243142	-77.468739
	Na	-52.103815	-69.539985	39.134855
	Na	12.993204	-76.078222	5.925626
	Na	55.056097	40.769722	27.370997
	Na	-19.039408	27.652272	-66.312543
	Na	-28.815828	20.075482	72.481667
	Na	19.238053	0.198918	-52.610732
	Na	-52.859298	25.306947	-56.946820
	Na	-17.152444	-22.787352	-36.066920
	Na	-68.559004	-70.679873	-57.844839
	Na	-27.724952	6.899013	-25.396693
	Na	76.766154	-14.394469	-56.056046
	Na	76.736226	-13.517050	54.060278
	Na	-20.609348	57.184124	-35.465186
	Na	36.396402	53.418763	-39.114832
	Na	-5.034915	16.124573	6.355037
	Na	42.008980	-69.297939	-59.867165
	Na	-67.674664	-76.960400	-64.209297
	Na	70.244840	-1.937798	63.669876
	Na	64.326475	48.709275	50.310263
	Na	-75.188748	35.282287	-18.709452
	Na	-24.858442	-21.402782	30.162678
	Na	-60.742917	42.133406	-10.849270
	Na	-62.776904	-75.520928	-5.463849
	Na	50.740917	73.656382	5.137825
	Na	-65.307801	50.818746	6.877229
	Na	64.435274	-28.276517	-19.013433
	Na	56.570746	-23.883864	-48.771028
	Na	25.916687	20.373188	-8.489394
	Na	-9.133981	-75.593234	-72.876881
	Na	75.489151	68.854951	42.801976
	Na	76.061931	66.170181	-39.957495
	Na	-64.254929	-48.931864	27.587677
	Na	31.502238	71.320613	-68.209263
	Na	36.848445	44.064954	-43.393940
	Na	-63.806248	58.858161	25.632840
	Na	69.214358	-8.923599	-41.217579
	Na	-62.184545	-74.730929	-63.048068
	Na	0.846691	-66.329661	-18.952812
	Na	33.967739	-10.242729	63.503738
	Na	39.059059	77.027945	-32.844022
	Na	35.588356	-43.652236	58.634059
	Na	-10.439667	61.990952	-45.135842
	Na	63.805081	-1.407232	22.079098
	Na	74.102000	37.602513	55.402516
	Na	69.606992	62.198267	-73.105661
	Na	-30.197728	16.769648	-42.246039
	Na	-56.072886	35.504632	-62.558140
	Na	-53.330339	-46.521519	41.814604
	Na	7.768918	34.592330	11.160631
	Na	-26.163796	69.854146	72.278847
	Na	-27.895944	-30.687697	-61.093894
	Na	-17.327446	70.562764	32.235824
	Na	25.056086	71.277521	39.230216
	Na	-32.531639	-2.285334	-74.055760
	Na	-55.289174	-38.015317	50.926136
	Na	-58.689452	13.016291	-10.976033
	Na	-37.291228	62.021436	19.140428
	Na	-74.686964	-35.650898	46.258064
	Na	-8.642595	-49.733893	34.248969
	Na	25.788344	27.485545	59.779501
	Na	-32.380134	-48.049998	-67.489949
	Na	-10.833108	-47.621217	-40.760896
	Na	41.718332	31.241682	64.922316
	Na	-11.919087	-12.665343	62.526266
	Na	-63.490455	74.900302	-12.247477
	Na	58.839779	-8.582858	-39.350824
	Na	45.398370	-31.376406	15.653064
	Na	49.380945	-66.571872	-42.907954
	Na	-3.010949	67.945196	25.075691
	Na	70.306111	-29.279727	-39.262977
	Na	57.992039	72.445363	28.416760
	Na	70.485501	33.510889	52.194585
	Na	-41.719726	22.724879	11.173307
	Na	10.287604	-60.032532	-50.427197
	Na	68.908269	38.440871	7.471595
	Na	-28.379992	62.587243	-69.467164
	Na	17.126116	50.919012	35.430373
	Na	33.278102	22.387834	50.411707
	Na	75.994486	-40.092868	-65.890300
	Na	25.004820	-34.637074	-36.523118
	Na	-19.945353	27.932671	-20.519734
	Na	10.542167	26.420045	-33.477785
	Na	17.637262	-26.827662	-52.072672
	Na	33.497391	58.865347	-28.767019
	Na	2.862879	-24.756107	-74.583940
	Na	73.184163	57.258381	41.396178
	Na	73.388467	-9.330388	61.498834
	Na	-46.335385	-51.892104	26.213897
	Na	23.124963	46.014156	15.858905
	Na	24.457706	-52.162216	0.297197
	Na	23.255558	4.853650	-15.050875
	Na	-43.107145	-19.748543	38.086731
	Na	-9.517697	-63.111738	-48.289235
	Na	73.758756	-53.407975	-26.562031
	Na	21.906520	-10.058291	-59.888030
	Na	76.370817	25.383906	67.268758
	Na	-22.897473	5.251679	-26.092502
	Na	-53.479293	75.592277	32.810891
	Na	-43.147978	20.849093	31.611385
	Na	11.343154	13.962742	-46.564860
	Na	35.344697	-6.995062	44.762364
	Na	66.376485	-44.586392	2.118830
	Na	10.793734	-68.517913	11.191423
	Na	73.099993	73.476155	34.895231
	Na	66.922209	18.094438	1.282304
	Na	31.841158	50.385037	-28.818613
	Na	-67.116304	-66.946128	-73.370939
	Na	-40.908638	73.320422	-41.864533
	Na	-66.929291	-13.935096	55.536299
	Na	77.591852	-6.795190	29.351888
	Na	-62.838206	48.361293	15.692331
	Na	-22.239134	19.871534	4.610704
	Na	39.449507	31.368524	29.636882
	Na	-50.305868	31.243562	47.452127
	Na	58.685488	68.874322	-7.553277
	Na	58.651535	41.596659	-75.138636
	Na	-7.876601	-15.742227	62.659644
	Na	62.799059	48.145292	14.716793
	Na	-10.702714	24.959847	48.624627
	Na	43.022372	11.770457	-25.069085
	Na	9.179974	-20.181834	-39.897811
	Na	16.126477	-65.318474	4.936805
	Na	-44.206253	-44.880556	76.014680
	Na	41.084714	-26.644693	-66.532423
	Na	20.934765	21.999529	-69.601611
	Na	20.653973	40.815908	52.101755
	Na	-4.697687	7.133166	-69.805432
	Na	25.692242	-52.974635	-35.968523
	Na	-33.206586	67.993369	-53.125242
	Na	-60.357568	60.885382	9.316508
	Na	6.756994	77.337321	-18.229587
	Na	4.217942	47.616785	48.307997
	Na	-40.327322	-57.934541	43.683790
	Na	-68.131039	-18.083052	30.618142
	Na	-0.771007	-42.836457	-66.605243
	Na	-28.698283	35.829265	11.256559
	Na	-31.646044	6.701893	9.129758
	Na	29.874888	8.604388	-58.529758
	Na	-65.892857	11.879076	6.903362
	Na	-16.608464	45.554056	25.831781
	Na	-3.027545	40.953313	2.910635
	Na	38.933908	31.030717	-29.659939
	Na	-69.494807	59.416210	73.397625
	Na	-29.729597	-68.286679	34.050100
	Na	-40.930156	-31.024006	-32.889666
	Mg	-0.503455	-74.152843	-46.531838
	Mg	43.198288	-48.299058	-47.359956
	Mg	-6.250360	-8.069716	-52.568920
	Mg	11.476298	-26.895899	-54.408092
	Mg	-54.577086	59.845156	40.490411
	Mg	50.884474	-10.307750	-3.937673
	Mg	-71.916410	37.109088	-33.319334
	Mg	-4.771980	-29.802225	76.100743
	Mg	34.317113	-44.178074	-60.819955
	Mg	-54.923903	-64.743569	7.148004
	Mg	50.355993	-23.958093	-47.188825
	Mg	-21.844740	-6.975267	-33.761244
	Mg	73.153779	-51.122077	14.901113
	Mg	28.853852	-68.992984	41.152478
	Mg	39.524161	-13.390079	-51.771694
	Mg	23.355365	10.543976	-52.079879
	Mg	63.276181	6.128516	19.122007
	Mg	-13.001929	76.192724	5.096373
	Mg	-20.957565	-16.668963	-51.769099
	Mg	5.937908	-20.220517	-27.501241
	Mg	18.514908	34.504409	-23.441237
	Mg	-66.754892	10.484590	-24.027847
	Mg	-54.469991	-34.141445	27.778846
	Mg	34.375646	-50.966505	25.451990
	Mg	-57.233744	49.660421	4.770624
	Mg	-58.049113	-40.317489	19.436657
	Mg	14.385248	62.799476	39.079769
	Mg	-25.720806	-75.213873	-30.687671
	Mg	-57.492990	31.878542	26.392901
	Mg	-14.197570	-71.378837	-65.771379
	Mg	48.184048	-51.044870	49.413644
	Mg	60.097453	8.690445	-70.969292
	Mg	-71.560327	68.777444	-41.305231
	Mg	-63.645193	20.535095	2.541054
	Mg	-43.459477	10.162856	-5.595168
	Mg	-4.567013	48.181384	36.296473
	Mg	-38.577306	-59.943797	-39.906428
	Mg	62.566393	33.586059	-21.576362
	Mg	35.943474	22.718197	38.378658
	Mg	44.499477	-70.041695	40.331048
	Mg	-73.756422	55.097502	-73.532406
	Mg	-36.682209	-26.305858	20.292695
	Mg	-39.053821	33.828275	-25.842713
	Mg	-0.149717	70.234892	-22.111468
	Mg	-9.076518	29.808553	9.944654
	Spd	-46.711112	-78.371057	60.557947
	Spd	-46.063279	-72.803269	62.008515
	Spd	-45.535166	-68.264416	63.191017
	Spd	-36.907899	29.034942	-80.058701
	Spd	-35.484919	25.598434	-75.621400
	Spd	-34.324908	22.796997	-72.004118
	Spd	77.856292	75.259932	-65.605685
	Spd	74.954393	70.251092	-65.726548
	Spd	72.588769	66.167893	-65.825076
	Spd	-54.332214	-12.129179	70.191091
	Spd	-56.099246	-17.468702	68.815887
	Spd	-57.539728	-21.821474	67.694822
	Spd	-16.784702	43.543907	62.991223
	Spd	-22.400748	44.944071	62.837378
	Spd	-26.978941	46.085482	62.711964
	Spd	53.456750	34.559220	-4.907043
	Spd	51.391673	34.844003	-10.308751
	Spd	49.708225	35.076158	-14.712216
	Spd	3.410206	65.484354	2.036829
	Spd	1.788033	63.385145	-3.109623
	Spd	0.465639	61.673873	-7.305005
	Spd	-23.479983	38.658705	10.733287
	Spd	-23.107036	37.908505	16.462354
	Spd	-22.803011	37.296943	21.132682
	Spd	29.774382	12.439186	4.151203
	Spd	24.140808	13.506727	4.955749
	Spd	19.548325	14.376985	5.611614
	Spd	22.615517	-68.072859	62.850761
	Spd	18.698965	-68.345695	58.595143
	Spd	15.506198	-68.568111	55.125969
	Spd	-55.767452	-28.482041	-30.379885
	Spd	-58.648911	-23.959829	-28.195648
	Spd	-60.997873	-20.273328	-26.415061
	Spd	-51.184871	-17.965651	-3.125142
	Spd	-51.855593	-12.226532	-2.755356
	Spd	-52.402365	-7.548010	-2.453907
	Spd	-58.669257	-65.318466	-68.183386
	Spd	-59.510216	-66.480601	-73.792871
	Spd	-60.195764	-67.427973	-78.365716
	Spd	-25.255093	-50.137184	-73.057478
	Spd	-20.641214	-50.883320	-69.639950
	Spd	-16.879986	-51.491568	-66.853986
	Spd	-8.217218	-62.083910	-73.266017
	Spd	-6.557342	-67.443741	-71.837338
	Spd	-5.204214	-71.813068	-70.672680
	Spd	50.642582	16.017710	-48.674652
	Spd	51.603710	10.924872	-51.255995
	Spd	52.387220	6.773196	-53.360302
	Spd	69.065420	-20.045747	-8.095616
	Spd	63.515141	-18.490270	-7.548812
	Spd	58.990561	-17.222247	-7.103059
	Spd	47.836656	65.552682	13.831610
	Spd	48.404514	70.818340	16.171371
	Spd	48.867431	75.110897	18.078741
	Spd	70.302818	17.285079	50.155153
	Spd	73.396940	12.503191	49.113971
	Spd	75.919263	8.605003	48.265201
	Spd	20.318271	-30.142896	-33.431925
	Spd	24.535194	-26.179028	-33.603425
	Spd	27.972824	-22.947689	-33.743231
	Spd	32.896416	68.312868	53.941252
	Spd	35.052246	67.804467	48.591670
	Spd	36.809675	67.390020	44.230698
	Spd	29.777321	33.991363	20.529163
	Spd	32.780949	38.347937	18.179145
	Spd	35.229501	41.899411	16.263414
	Cl	42.725491	74.530263	-50.774598
	Cl	43.546153	0.868582	64.102781
	Cl	-4.069556	57.368916	51.822713
	Cl	21.453500	74.806703	-68.841279
	Cl	-38.596958	-70.393428	35.252542
	Cl	9.932071	26.581627	-11.423064
	Cl	-9.894411	57.139113	6.388518
	Cl	46.011326	-57.179683	12.634316
	Cl	9.105127	-65.378650	-41.192401
	Cl	-16.992058	-25.055339	-47.391932
	Cl	-47.563615	-65.373635	-61.782538
	Cl	30.596794	-57.305826	42.360157
	Cl	-64.680625	-9.762710	50.071059
	Cl	5.868938	-73.490990	-32.168601
	Cl	72.376465	36.003327	21.533171
	Cl	16.090109	-53.484732	47.921549
	Cl	63.689202	32.103231	-64.919596
	Cl	56.937103	-58.071752	-51.938755
	Cl	76.430138	39.439152	67.320859
	Cl	15.886919	13.631642	-20.461195
	Cl	54.103664	-5.672109	-25.601966
	Cl	-10.301516	-7.787332	-44.193067
	Cl	33.258029	-44.912143	-4.965186
	Cl	-76.937580	71.921199	51.824780
	Cl	-59.230613	-2.901562	-25.695230
	Cl	4.716745	24.320734	-62.820204
	Cl	-60.993530	-11.014599	-40.239811
	Cl	30.820481	14.502848	-69.676970
	Cl	-15.534966	-32.026840	-17.859248
	Cl	49.132272	-59.101805	-12.369272
	Cl	22.070007	53.979286	-52.734509
	Cl	4.133765	-41.049721	70.044110
	Cl	19.333249	-55.142368	7.675533
	Cl	-44.710718	9.908346	-47.005445
	Cl	48.975919	-15.694451	72.401573
	Cl	-63.959255	71.494082	28.259304
	Cl	-38.432716	3.159367	3.224721
	Cl	-65.020995	31.317455	-35.096492
	Cl	-36.010655	48.605746	-47.712003
	Cl	-26.496480	-54.506847	75.058543
	Cl	-36.139293	-27.859992	-3.709219
	Cl	-20.806809	-64.076701	55.856461
	Cl	-9.247785	50.640997	5.539895
	Cl	-54.071165	59.732862	9.587729
	Cl	52.987154	60.552736	-77.180951
	Cl	-24.632693	14.588987	64.771870
	Cl	-44.247504	60.528343	-30.254525
	Cl	-59.347153	14.248656	-36.648577
	Cl	-1.084892	-41.348177	19.828279
	Cl	0.601578	-43.565778	59.869864
	Cl	11.643623	19.497280	1.925618
	Cl	-10.737897	10.374031	34.670105
	Cl	-19.960492	-69.273020	53.900167
	Cl	74.036242	35.319566	13.262937
	Cl	-30.144931	-19.761833	63.980067
	Cl	25.176003	57.875499	38.460021
	Cl	33.523289	72.931201	-30.548836
	Cl	-76.628786	-61.022519	40.952593
	Cl	-11.194776	76.715518	-25.757554
	Cl	-18.248106	1.578636	42.805078
	Cl	42.087037	32.075531	3.233201
	Cl	-25.309758	-45.793699	-50.109308
	Cl	-29.005598	-9.460139	-65.700804
	Cl	47.805286	-13.554314	-42.060196
	Cl	61.018608	-52.002268	63.121538
	Cl	-17.812977	-39.287206	71.442246
	Cl	33.888306	-3.498697	67.190320
	Cl	-17.454071	-48.808274	-73.649252
	Cl	-45.341793	21.988765	-41.548609
	Cl	43.479422	0.942878	-31.908719
	Cl	50.472373	-65.274325	-29.418756
	Cl	23.584764	63.287382	58.756179
	Cl	49.686402	70.925526	-29.555527
	Cl	25.681038	40.580898	-76.206981
	Cl	-54.090456	-21.181932	-60.691932
	Cl	73.394014	-74.105998	18.823498
	Cl	-5.286903	-54.643679	-33.563458
	Cl	-42.967549	-66.382857	-73.377843
	Cl	7.974899	-55.515076	55.129242
	Cl	-49.327731	-74.155141	-12.678905
	Cl	5.228473	-10.415405	56.946272
	Cl	-4.090920	32.074383	39.611448
	Cl	-73.707791	55.251847	-51.275774
	Cl	56.340163	13.648324	-76.101191
	Cl	73.465521	52.730559	-34.276953
	Cl	-32.341267	-68.857591	-12.428001
	Cl	-66.428598	-7.143585	-74.796634
	Cl	62.798687	73.416506	-75.671454
	Cl	-43.491682	34.236924	77.718351
	Cl	34.447574	14.882676	-49.578341
	Cl	50.104043	76.246026	-4.100422
	Cl	-38.857164	54.394190	17.534933
	Cl	58.031556	-23.541210	2.053231
	Cl	-45.188790	-28.186237	34.365572
	Cl	56.049100	-21.783110	-18.632875
	Cl	-74.917438	16.932240	70.479185
	Cl	2.972559	-59.255670	-13.206711
	Cl	45.282996	3.907142	34.538067
	Cl	75.461148	6.872964	67.303284
	Cl	-24.233369	-69.787701	-60.657164
	Cl	59.973097	-50.554140	-53.072260
	Cl	-74.336727	55.811305	-27.965504
	Cl	39.891212	19.982735	35.571375
	Cl	-68.990300	61.893951	6.403013
	Cl	-68.779777	31.088779	-75.107293
	Cl	1.046732	-38.839636	75.273136
	Cl	36.775085	42.608602	41.710430
	Cl	21.894512	6.498437	43.397139
	Cl	-23.123251	-49.240518	-12.938499
	Cl	-70.899108	-47.346923	35.946759
	Cl	73.788799	-71.087676	1.668888
	Cl	72.026106	-26.148062	6.730669
	Cl	-43.432469	-60.253267	32.143584
	Cl	6.936705	63.789699	46.565927
	Cl	-10.528460	43.365342	-18.119163
	Cl	-55.083318	-59.429975	5.110106
	Cl	-2.986193	-76.631002	-60.448552
	Cl	-70.846929	29.064120	65.134273
	Cl	74.814424	27.629249	-32.803720
	Cl	77.317657	49.171883	-17.402015
	Cl	62.535936	71.523885	-4.187134
	Cl	-64.743136	16.340259	77.345457
	Cl	-49.762948	-61.385077	62.195702
	Cl	24.260418	52.400297	-71.800710
	Cl	-25.921546	18.548242	25.590564
	Cl	-42.065318	-34.947710	-27.178864
	Cl	-40.272713	-27.465560	-52.919289
	Cl	-31.517827	-25.393765	-42.759451
	Cl	19.092538	57.176998	49.269320
	Cl	-34.850642	73.524983	-49.012973
	Cl	15.636978	71.442788	65.803052
	Cl	-18.380404	-66.181685	68.537181
	Cl	-37.075433	-12.665651	-70.596357
	Cl	26.969642	-21.513932	28.418328
	Cl	-18.203351	-1.634834	-31.799407
	Cl	60.232017	32.006163	-53.150311
	Cl	-69.513321	-53.224263	-59.820013
	Cl	8.711758	-40.951291	-4.314760
	Cl	-2.473651	-30.283707	58.702814
	Cl	-32.536095	58.485976	-14.116287
	Cl	-25.401003	37.580594	-22.871455
	Cl	-16.448508	35.508860	-62.021483
	Cl	39.153759	46.243835	-18.969895
	Cl	43.735746	-67.864915	35.477044
	Cl	49.607074	27.860330	50.680309
	Cl	20.773089	34.683644	42.090877
	Cl	9.708026	-20.564720	55.336166
	Cl	0.222881	25.423450	-25.217083
	Cl	54.396366	-22.275116	26.115093
	Cl	-27.276536	-76.099717	50.330658
	Cl	-43.325114	32.832679	-31.479475
	Cl	22.514073	73.384924	-47.609880
	Cl	-40.960961	71.909933	38.127870
	Cl	18.502995	75.439156	5.177456
	Cl	-48.174336	-62.795507	19.145727
	Cl	-9.055007	14.850286	57.104358
	Cl	-40.645167	-74.211150	44.301687
	Cl	-13.919301	-48.647775	1.413737
	Cl	55.937949	20.339881	47.728273
	Cl	8.320178	75.408205	-2.836896
	Cl	-23.936624	-0.184072	59.387036
	Cl	-54.203135	56.252510	-34.120797
	Cl	57.095565	32.968987	53.274224
	Cl	-38.209010	8.669913	17.960932
	Cl	-17.159738	37.897950	-2.258196
	Cl	20.717963	31.735085	36.654856
	Cl	28.026320	15.376118	-10.391736
	Cl	-1.020929	39.500047	11.249876
	Cl	-4.966337	-32.101833	-56.698413
	Cl	7.881228	-33.155378	-25.704309
	Cl	-44.628377	12.556456	32.539768
	Cl	-40.105029	-0.563560	51.241893
	Cl	-3.357539	22.764226	-60.143764
	Cl	48.479198	-15.959954	12.403778
	Cl	61.247659	-73.021098	12.675117
	Cl	-67.948841	-74.834086	-49.756984
	Cl	63.739037	-61.173766	-33.934748
	Cl	-25.072542	-46.743880	42.346514
	Cl	15.596835	60.540332	64.737399
	Cl	-55.105217	29.689907	30.935557
	Cl	-49.781114	61.860113	30.925667
	Cl	24.462605	16.831009	-39.335621
	Cl	21.666385	27.014044	-55.367885
	Cl	49.618253	19.591709	-10.038734
	Cl	7.776285	40.401969	-55.663016
	Cl	40.857551	-74.194975	-69.295594
	Cl	60.463084	-10.494300	-72.115031
	Cl	-63.181015	-16.361713	6.438788
	Cl	40.527955	52.650606	-27.915019
	Cl	-19.005460	-41.196892	-53.451539
	Cl	-36.161245	39.797764	-24.167415
	Cl	3.656208	52.287798	36.587849
	Cl	72.897670	71.508272	-46.390525
	Cl	61.205622	57.615867	70.442284
	Cl	-13.919282	-6.725950	-31.192225
	Cl	47.462506	-42.012631	48.017799
	Cl	6.704337	20.299867	48.995137
	Cl	33.318454	-28.026696	12.527632
	Cl	33.662952	67.070152	-37.160848
	Cl	65.726101	74.242567	75.343001
	Cl	53.109193	-58.388252	-2.629609
	Cl	-74.737489	60.533319	-52.850370
	Cl	4.016900	59.798039	-58.458545
	Cl	29.738999	-15.673376	6.852904
	Cl	42.597674	54.912215	-17.173655
	Cl	59.947283	36.273857	-77.652763
	Cl	-1.489285	-11.080275	55.465540
	Cl	-12.756100	6.317712	-22.770102
	Cl	9.163853	-27.095863	-62.671580
	Cl	19.087587	31.356266	48.864480
	Cl	-60.927008	69.165951	-50.520403
	Cl	77.549557	5.803690	62.361517
	Cl	-38.964197	-62.112535	63.428325
	Cl	-50.524089	24.121030	-47.899830
	Cl	13.816461	2.135932	-54.013050
	Cl	-54.033095	60.754306	-38.091489
	Cl	20.748555	6.410210	-25.795843
	Cl	33.339323	-57.815500	19.475108
	Cl	-58.767266	73.603454	-68.443103
	Cl	61.213618	-52.951141	-47.366565
	Cl	61.084996	-17.141052	-32.619348
	Cl	-32.541652	-61.719983	36.681418
	Cl	-58.561464	-41.341581	-47.891150
	Cl	59.619403	-52.696692	43.214434
	Cl	2.662343	-7.000888	-45.760694
	Cl	-16.330165	57.577293	-11.040545
	Cl	-50.994942	67.623790	69.640315
	Cl	53.364761	-3.725310	-45.457133
	Cl	-45.535087	-9.720851	-58.528778
	Cl	14.098465	76.688615	-57.188455
	Cl	-34.797738	-66.591037	21.365546
	Cl	-65.178346	-57.366935	-5.617841
	Cl	59.103442	57.625785	21.716128
	Cl	40.287532	-5.515010	42.362577
	Cl	32.192328	22.329243	24.575066
	Cl	30.993932	16.925050	53.249996
	Cl	62.382862	8.640664	56.057542
	Cl	-61.694351	-13.499065	74.909363
	Cl	-61.713149	-56.469777	-38.695612
	Cl	-47.484354	46.025078	66.352404
	Cl	6.099881	-74.505617	6.345020
	Cl	-3.168611	-12.866585	-36.341306
	Cl	-71.496203	15.497837	-41.865128
	Cl	-42.814022	45.480050	-20.372767
	Cl	70.326212	-76.528166	-77.245807
	Cl	-73.467002	14.024321	42.057046
	Cl	-37.799083	-58.753430	-8.783684
	Cl	-17.320109	36.895800	75.385374
	Cl	70.198044	-59.396153	-48.887918
	Cl	-59.905680	48.393186	-50.296865
	Cl	-53.776441	-68.257938	-19.349134
	Cl	-3.618883	-17.840044	56.789381
	Cl	-34.293989	57.108091	-20.432525
	Cl	-1.725024	44.404277	-63.902189
	Cl	73.078970	6.798213	-44.128770
	Cl	66.480901	-69.640580	71.332258
	Cl	31.422550	-60.409453	-10.257389
	Cl	20.158292	67.580661	-66.372451
	Cl	-60.320198	22.281852	-68.848433
	Cl	-41.203497	76.485624	67.082891
	Cl	-26.361607	77.592758	-67.156658
	Cl	28.304495	-72.753997	64.837656
	Cl	30.825713	-16.528592	-33.112497
	Cl	-42.665060	65.546934	-74.784495
	Cl	-0.775705	-56.877911	-64.239588
	Cl	-61.156191	52.528461	56.241937
	Cl	45.847259	65.445189	-32.083013
	Cl	64.916125	38.260547	36.333949
	Cl	-18.780751	73.578342	-34.449689
	Cl	57.377165	-66.211296	-25.908277
	Cl	73.087232	-36.554282	19.051205
	Cl	-14.136238	-33.360622	60.247000
	Cl	50.343490	16.357429	-58.712805
	Cl	-73.986902	-42.767931	-49.320774
	Cl	16.479170	39.676771	71.512630
	Cl	-70.619965	53.680324	-22.492563
	Cl	-48.907182	9.197818	-11.507931
	Cl	23.611239	-53.210082	55.611739
	Cl	71.191231	-2.417324	-73.457198
	Cl	20.055710	-7.712748	-74.282974
	Cl	-69.038380	-45.238292	74.127492
	Cl	42.021718	71.559748	-64.502004
	Cl	-15.167479	39.689012	-20.923675
	Cl	15.352220	-67.745164	39.193381
	Cl	-59.458391	-40.108721	-2.040182
	Cl	19.312752	74.943489	17.948989
	Cl	-59.311872	58.693416	67.444816
	Cl	36.935208	-50.076165	-32.495123
	Cl	-44.980986	45.397815	27.026888
	Cl	55.683353	48.205183	-72.945768
	Cl	55.628429	-21.454743	33.890950
	Cl	10.071909	-39.825306	36.219026
	Cl	44.905269	-66.966050	-71.939826
	Cl	-39.424965	-20.402574	19.511121
	Cl	-74.687231	18.054049	32.168711
	Cl	-51.079645	20.666826	66.215999
	Cl	-44.987745	54.133562	60.268354
	Cl	-21.310530	69.458427	-12.461472
	Cl	56.851661	4.664220	41.820720
	Cl	34.912745	-60.641971	61.570513
	Cl	-45.762893	38.399719	23.759692
	Cl	-71.768421	41.053748	-15.237125
	Cl	40.114157	-39.728505	30.091594
	Cl	41.141316	-17.505113	-24.778598
	Cl	-0.499703	29.363128	34.963375
	Cl	-17.223863	67.639930	53.528284
	Cl	58.642109	-2.125885	48.356165
	Cl	68.814972	75.724827	-26.536621
	Cl	59.878306	31.976359	-32.128659
	Cl	-0.775357	-63.532456	-42.350959
	Cl	66.978546	51.842571	11.250457
	Cl	5.570283	-58.711619	77.676938
	Cl	-61.020863	49.744118	41.760185
	Cl	-2.278842	-4.110321	-70.568896
	Cl	26.436078	38.801142	70.829340
	Cl	-1.328840	30.303718	-8.061136
	Cl	-57.478094	-51.562328	61.625569
	Cl	-48.947989	-6.373805	-6.722397
	Cl	-8.785856	-56.628419	-43.990073
	Cl	-40.918786	-41.739440	-33.646984
	Cl	54.226785	54.982615	-62.509493
	Cl	51.440252	-26.698233	-71.721373
	Cl	62.787340	-24.220244	51.030801
	Cl	16.399471	-67.101024	14.634124
	Cl	69.034858	40.835540	55.605503
	Cl	-30.922508	12.662977	-6.460154
	Cl	-62.207895	-67.706797	-49.183305
	Cl	68.613298	-58.498607	-72.761208
	Cl	-47.442582	71.181392	-66.615316
	Cl	21.705567	-20.811291	-28.763026
	Cl	-11.943757	-11.350264	-20.585274
	Cl	51.577082	-1.478053	46.300937
	Cl	26.293894	-31.558815	-12.497459
	Cl	38.931225	76.945788	26.583613
	Cl	-47.767114	-32.988119	7.891461
	Cl	50.000982	-24.933560	52.061985
	Cl	-62.582936	2.768436	23.825730
	Cl	-56.878137	24.594516	19.069099
	Cl	33.203192	-64.263767	73.791144
	Cl	-22.438009	21.145757	-48.687152
	Cl	8.142351	40.741552	56.115256
	Cl	59.509794	36.783992	29.497921
	Cl	42.182926	51.065427	-72.958075
	Cl	5.583104	-77.191362	-44.750978
	Cl	66.317348	-15.449864	-20.368281
	Cl	-63.146456	38.054225	-30.824896
	Cl	-15.821727	21.337967	74.217143
	Cl	55.901808	-38.539292	-76.989660
	Cl	-66.739094	60.646022	-56.891607
	Cl	3.289660	22.943269	44.699701
	Cl	-2.320163	-72.892807	-75.051449
	Cl	30.004434	50.241385	17.850939
	Cl	56.188867	-38.878808	50.737276
	Cl	-76.775417	-31.750982	22.996826
	Cl	17.119632	76.173558	72.522875
	Cl	12.032025	-34.390638	44.157943
	Cl	45.846077	73.473860	8.201752
	Cl	33.798417	46.893470	-72.274070
	Cl	6.846852	-36.258270	59.632215
	Cl	72.939798	-77.393275	-51.518931
	Cl	43.589394	-36.881028	72.788506
	Cl	18.575829	-48.936131	30.798806
	Cl	19.326222	-26.216463	52.546543
	Cl	74.594997	62.376166	-71.992000
	Cl	-6.164978	-13.292880	-12.333994
	Cl	28.782866	9.902654	32.443866
	Cl	-76.634655	-52.532541	-38.566196
	Cl	-37.800058	-22.600301	37.232740
	Cl	11.158254	37.724572	65.075437
	Cl	-31.080914	9.195493	-20.820374
	Cl	-47.440402	12.393051	-16.420199
	Cl	-76.670231	56.739135	-15.910325
	Cl	69.790601	-11.907199	-32.797281
	Cl	-39.331573	17.364375	-3.228148
	Cl	-8.877745	49.235630	24.562938
	Cl	53.656240	62.877217	-60.247276
	Cl	25.043509	-46.207610	-50.987126
	Cl	-14.355801	18.467713	-65.284634
	Cl	-1.277721	39.758607	-72.505545
	Cl	-62.413248	10.089494	2.619662
	Cl	12.744032	-47.554119	-76.979370
	Cl	-30.844729	59.726621	-76.895629
