190

   S     -1.988684      6.690268     53.676844
   A     -1.264672      2.174358     52.600844
   P     -0.669098      8.882528     51.202844
   S      2.323562      6.554449     50.296844
   T     -0.239912      3.398475     49.288844
   P      4.679707      7.552391     47.822844
   S      5.732409      3.909894     46.916844
   A      1.661256      1.825825     45.840844
   P      8.225147      3.332339     44.442844
   S      6.935795     -0.233265     43.536844
   C      3.105943      0.865236     42.520844
   P      8.612983     -2.165712     41.062844
   S      5.474066     -4.292484     40.156844
   A      2.233943     -1.064600     39.080844
   P      5.695076     -6.841693     37.682844
   S      1.905554     -6.717279     36.776844
   A      1.181541     -2.201369     35.700844
   P      0.585967     -8.909538     34.302844
   S     -2.406692     -6.581460     33.396844
   A     -0.338045     -2.502448     32.320844
   P     -4.762838     -7.579401     30.922844
   S     -5.815540     -3.936905     30.016844
   G     -1.792040     -1.500592     28.922844
   P     -8.308277     -3.359349     27.542844
   S     -7.018925      0.206255     26.636844
   G     -2.331817     -0.187680     25.542844
   P     -8.696114      2.138701     24.162844
   S     -5.557196      4.265474     23.256844
   T     -3.347843      0.852215     22.248844
   P     -5.778207      6.814682     20.782844
   S     -1.988684      6.690268     19.876844
   G     -0.914942      2.110830     18.782844
   P     -0.669098      8.882528     17.402844
   S      2.323562      6.554449     16.496844
   C      0.095336      3.251499     15.480844
   P      4.679707      7.552391     14.022844
   S      5.732409      3.909894     13.116844
   G      1.708910      1.473581     12.022844
   P      8.225147      3.332339     10.642844
   S      6.935795     -0.233265      9.736844
   A      2.417177      0.473651      8.660844
   P      8.612983     -2.165712      7.262844
   S      5.474066     -4.292484      6.356844
   G      1.913664     -1.218771      5.262844
   P      5.695076     -6.841693      3.882844
   S      1.905554     -6.717279      2.976844
   G      0.831811     -2.137841      1.882844
   P      0.585967     -8.909538      0.502844
   S     -2.406692     -6.581460     -0.403156
   T      0.156782     -3.425485     -1.411156
   P     -4.762838     -7.579401     -2.877156
   S     -5.815540     -3.936905     -3.783156
   T     -1.886611     -2.890440     -4.791156
   P     -8.308277     -3.359349     -6.257156
   S     -7.018925      0.206255     -7.163156
   T     -3.225258     -1.256504     -8.171156
   P     -8.696114      2.138701     -9.637156
   S     -5.557196      4.265474    -10.543156
   C     -3.104464      1.125637    -11.559156
   P     -5.778207      6.814682    -13.017156
   S     -1.988684      6.690268    -13.923156
   T     -2.207543      2.630259    -14.931156
   P     -0.669098      8.882528    -16.397156
   S      2.323562      6.554449    -17.303156
   A      0.254915      2.475438    -18.379156
   P      4.679707      7.552391    -19.777156
   S      5.732409      3.909894    -20.683156
   T      1.803480      2.863430    -21.691156
   P      8.225147      3.332339    -23.157156
   S      6.935795     -0.233265    -24.063156
   G      2.248686      0.160669    -25.157156
   P      8.612983     -2.165712    -26.537156
   S      5.474066     -4.292484    -27.443156
   C      3.021333     -1.152648    -28.459156
   P      5.695076     -6.841693    -29.917156
   S      1.905554     -6.717279    -30.823156
   T      2.124412     -2.657270    -31.831156
   P      0.585967     -8.909538    -33.297156
   S     -2.406692     -6.581460    -34.203156
   C     -0.178467     -3.278509    -35.219156
   P     -4.762838     -7.579401    -36.677156
   S     -5.815540     -3.936905    -37.583156
   C     -2.071442     -2.574481    -38.599156
   P     -8.308277     -3.359349    -40.057156
   S     -7.018925      0.206255    -40.963156
   C     -3.189074     -0.892246    -41.979156
   P     -8.696114      2.138701    -43.437156
   S     -5.557196      4.265474    -44.343156
   A     -2.317073      1.037590    -45.419156
   P     -5.778207      6.814682    -46.817156
   S     -1.988684      6.690268    -47.723156
   C     -1.849931      2.708407    -48.739156
   P     -0.669098      8.882528    -50.197156
   S      2.323562      6.554449    -51.103156
   G      0.500511      2.218476    -52.197156
   S      2.323562     -6.581460    -53.663156
   C      0.095336     -3.278509    -52.647156
   P      4.679707     -7.579401    -51.189156
   S      5.732409     -3.936905    -50.283156
   G      1.708910     -1.500592    -49.189156
   P      8.225147     -3.359349    -47.809156
   S      6.935795      0.206255    -46.903156
   T      3.142128     -1.256504    -45.895156
   P      8.612983      2.138701    -44.429156
   S      5.474066      4.265474    -43.523156
   G      1.913664      1.191760    -42.429156
   P      5.695076      6.814682    -41.049156
   S      1.905554      6.690268    -40.143156
   G      0.831811      2.110830    -39.049156
   P      0.585967      8.882528    -37.669156
   S     -2.406692      6.554449    -36.763156
   G     -0.583642      2.218476    -35.669156
   P     -4.762838      7.552391    -34.289156
   S     -5.815540      3.909894    -33.383156
   A     -1.744387      1.825825    -32.307156
   P     -8.308277      3.332339    -30.909156
   S     -7.018925     -0.233265    -30.003156
   G     -2.331817      0.160669    -28.909156
   P     -8.696114     -2.165712    -27.529156
   S     -5.557196     -4.292484    -26.623156
   C     -3.104464     -1.152648    -25.607156
   P     -5.778207     -6.841693    -24.149156
   S     -1.988684     -6.717279    -23.243156
   A     -1.264672     -2.201369    -22.167156
   P     -0.669098     -8.909538    -20.769156
   S      2.323562     -6.581460    -19.863156
   T     -0.239912     -3.425485    -18.855156
   P      4.679707     -7.579401    -17.389156
   S      5.732409     -3.936905    -16.483156
   A      1.661256     -1.852836    -15.407156
   P      8.225147     -3.359349    -14.009156
   S      6.935795      0.206255    -13.103156
   G      2.248686     -0.187680    -12.009156
   P      8.612983      2.138701    -10.629156
   S      5.474066      4.265474     -9.723156
   A      2.233943      1.037590     -8.647156
   P      5.695076      6.814682     -7.249156
   S      1.905554      6.690268     -6.343156
   A      1.181541      2.174358     -5.267156
   P      0.585967      8.882528     -3.869156
   S     -2.406692      6.554449     -2.963156
   A     -0.338045      2.475438     -1.887156
   P     -4.762838      7.552391     -0.489156
   S     -5.815540      3.909894      0.416844
   C     -2.071442      2.547470      1.432844
   P     -8.308277      3.332339      2.890844
   S     -7.018925     -0.233265      3.796844
   C     -3.189074      0.865236      4.812844
   P     -8.696114     -2.165712      6.270844
   S     -5.557196     -4.292484      7.176844
   T     -3.347843     -0.879226      8.184844
   P     -5.778207     -6.841693      9.650844
   S     -1.988684     -6.717279     10.556844
   C     -1.849931     -2.735418     11.572844
   P     -0.669098     -8.909538     13.030844
   S      2.323562     -6.581460     13.936844
   G      0.500511     -2.245487     15.030844
   P      4.679707     -7.579401     16.410844
   S      5.732409     -3.936905     17.316844
   C      1.988312     -2.574481     18.332844
   P      8.225147     -3.359349     19.790844
   S      6.935795      0.206255     20.696844
   A      2.417177     -0.500662     21.772844
   P      8.612983      2.138701     23.170844
   S      5.474066      4.265474     24.076844
   C      3.021333      1.125637     25.092844
   P      5.695076      6.814682     26.550844
   S      1.905554      6.690268     27.456844
   C      1.766801      2.708407     28.472844
   P      0.585967      8.882528     29.930844
   S     -2.406692      6.554449     30.836844
   T      0.156782      3.398475     31.844844
   P     -4.762838      7.552391     33.310844
   S     -5.815540      3.909894     34.216844
   T     -1.886611      2.863430     35.224844
   P     -8.308277      3.332339     36.690844
   S     -7.018925     -0.233265     37.596844
   T     -3.225258      1.229493     38.604844
   P     -8.696114     -2.165712     40.070844
   S     -5.557196     -4.292484     40.976844
   G     -1.996795     -1.218771     42.070844
   P     -5.778207     -6.841693     43.450844
   S     -1.988684     -6.717279     44.356844
   T     -2.207543     -2.657270     45.364844
   P     -0.669098     -8.909538     46.830844
   S      2.323562     -6.581460     47.736844
   A      0.254915     -2.502448     48.812844
   P      4.679707     -7.579401     50.210844
   S      5.732409     -3.936905     51.116844
   T      1.803480     -2.890440     52.124844
