190

   S      8.589651     -3.780794     36.796183
   A      4.346207     -3.767331     38.810183
   P      7.948400     -4.716636     33.190183
   S      5.289033     -7.736279     34.236183
   T      2.679337     -5.081256     36.223183
   P      4.243834     -8.177370     30.630183
   S      0.374616     -9.281735     31.676183
   A     -1.379608     -5.417837     33.690183
   P     -0.743226     -9.088259     28.070183
   S     -4.595838     -7.927286     29.116183
   C     -3.629934     -4.395524     30.885183
   P     -5.431990     -7.160571     25.510183
   S     -8.046800     -4.102264     26.556183
   A     -5.263854     -0.898794     28.570183
   P     -8.336221     -3.005341     22.950183
   S     -8.884390      0.980883     23.996183
   A     -4.811868      2.173177     26.010183
   P     -8.535339      2.060312     20.390183
   S     -6.843111      5.710906     21.436183
   A     -2.771914      4.514094     23.450183
   P     -5.966230      6.430685     17.830183
   S     -2.570004      8.588490     18.876183
   G      0.540204      5.496768     20.953183
   P     -1.443244      8.720465     15.270183
   S      2.580449      8.701502     16.316183
   G      3.527449      4.419526     18.393183
   P      3.599928      8.203841     12.710183
   S      6.975665      6.014122     13.756183
   T      4.730357      3.044568     15.743183
   P      7.564710      5.044570     10.150183
   S      9.222455      1.378189     11.196183
   G      5.723346     -1.265362     13.273183
   P      9.194352      0.244075      7.590183
   S      8.608635     -3.736805      8.636183
   C      4.973658     -3.297193     10.405183
   P      7.972292     -4.675992      5.030183
   S      5.328773     -7.709517      6.076183
   G      1.468549     -5.628460      8.153183
   P      4.285898     -8.156075      2.470183
   S      0.422515     -9.280684      3.516183
   A     -1.351916     -5.426024      5.530183
   P     -0.696325     -9.093063     -0.089817
   S     -4.554962     -7.952279      0.956183
   G     -4.269727     -3.576119      3.033183
   P     -5.395118     -7.189952     -2.649817
   S     -8.025905     -4.145378     -1.603817
   G     -5.421699     -0.616888      0.473183
   P     -8.321065     -3.049986     -5.209817
   S     -8.890099      0.933313     -4.163817
   T     -5.176342      1.193443     -2.176817
   P     -8.546704      2.014555     -7.769817
   S     -6.873614      5.673959     -6.723817
   T     -3.607915      3.886540     -4.736817
   P     -6.000513      6.398321    -10.329817
   S     -2.615632      8.573878     -9.283817
   T     -0.833147      5.305482     -7.296817
   P     -1.489579      8.711751    -12.889817
   S      2.534159      8.713857    -11.843817
   C      2.630272      5.053655    -10.074817
   P      3.556229      8.221540    -15.449817
   S      6.943385      6.049526    -14.403817
   T      4.713656      3.068256    -12.416817
   P      7.537499      5.083072    -18.009817
   S      9.214418      1.425421    -16.963817
   A      5.660324     -0.893074    -14.949817
   P      9.192254      0.291175    -20.569817
   S      8.627388     -3.692717    -19.523817
   T      4.988517     -2.906412    -17.536817
   P      7.995972     -4.635223    -23.129817
   S      5.368373     -7.682548    -22.083817
   G      1.497305     -5.621731    -20.006817
   P      4.327849     -8.134560    -25.689817
   S      0.470408     -9.279382    -24.643817
   C     -0.661301     -5.797206    -22.874817
   P     -0.649399     -9.097622    -28.249817
   S     -4.513956     -7.977057    -27.203817
   T     -3.222775     -4.485280    -25.216817
   P     -5.358092     -7.219140    -30.809817
   S     -8.004784     -4.188382    -29.763817
   C     -5.309772     -1.709829    -27.994817
   P     -8.305676     -3.094550    -33.369817
   S     -8.895558      0.885715    -32.323817
   C     -5.288662      1.515490    -30.554817
   P     -8.557830      1.968740    -35.929817
   S     -6.903923      5.636854    -34.883817
   C     -3.528451      4.218226    -33.114817
   P     -6.034627      6.365777    -38.489817
   S     -2.661183      8.559027    -37.443817
   A      0.151633      5.381753    -35.429817
   P     -1.535868      8.702795    -41.049817
   S      2.487804      8.725968    -40.003817
   C      2.603081      5.066320    -38.234817
   P      3.512438      8.239009    -43.609817
   S      6.910920      6.084760    -42.563817
   G      5.437709      1.954170    -40.486817
   S      6.910920     -6.351056    -36.785817
   C      5.030837     -3.209146    -38.554817
   P      7.510086     -5.387727    -33.179817
   S      9.206134     -1.738906    -34.225817
   G      5.734899      0.941142    -36.302817
   P      9.189909     -0.604560    -30.619817
   S      8.645911      3.382235    -31.665817
   T      5.002972      2.614994    -33.652817
   P      8.019438      4.328034    -28.059817
   S      5.407830      7.389076    -29.105817
   G      1.526025      5.348556    -31.182817
   P      4.369688      7.846530    -25.499817
   S      0.518294      9.011534    -26.545817
   G     -1.645916      5.197307    -28.622817
   P     -0.602450      8.835640    -22.939817
   S     -4.472821      7.735324    -23.985817
   G     -4.233428      3.356418    -26.062817
   P     -5.320914      6.981837    -20.379817
   S     -7.983439      3.964979    -21.425817
   A     -5.251154      0.718193    -23.439817
   P     -8.290053      2.872738    -17.819817
   S     -8.900768     -1.104384    -18.865817
   G     -4.819654     -2.709574    -20.942817
   P     -8.568715     -2.189162    -15.259817
   S     -6.934037     -5.865886    -16.305817
   C     -3.551183     -4.464951    -18.074817
   P     -6.068569     -6.599351    -12.699817
   S     -2.706656     -8.810234    -13.745817
   A      0.122758     -5.647732    -15.759817
   P     -1.582108     -8.959892    -10.139817
   S      2.441387     -9.004133    -11.185817
   T      2.214548     -5.288194    -13.172817
   P      3.468556     -8.522546     -7.579817
   S      6.878272     -6.386121     -8.625817
   A      5.180641     -2.497027    -10.639817
   P      7.482473     -5.425941     -5.019817
   S      9.197603     -1.786051     -6.065817
   G      5.740448      0.912136     -8.142817
   P      9.187317     -0.651636     -2.459817
   S      8.664201      3.337953     -3.505817
   A      4.421406      3.413361     -5.519817
   P      8.042689      4.287020      0.100183
   S      5.447145      7.361693     -0.945817
   A      1.836048      5.133020     -2.959817
   P      4.411412      7.824577      2.660183
   S      0.566170      9.009730      1.614183
   A     -1.268587      5.183418     -0.399817
   P     -0.555478      8.839707      5.220183
   S     -4.431558      7.759672      4.174183
   C     -3.539830      4.208456      2.405183
   P     -5.283584      7.010636      7.780183
   S     -7.961869      4.007760      6.734183
   C     -5.292959      1.501121      4.965183
   P     -8.274198      2.917139     10.340183
   S     -8.905729     -1.056731      9.294183
   T     -5.196516     -1.375161      7.307183
   P     -8.579360     -2.143233     12.900183
   S     -6.963956     -5.828465     11.854183
   C     -3.573813     -4.445262     10.085183
   P     -6.102340     -6.566451     15.460183
   S     -2.752049     -8.794907     14.414183
   G      0.422224     -5.768999     12.337183
   P     -1.628301     -8.950451     18.020183
   S      2.394908     -9.015758     16.974183
   C      2.548501     -5.357517     15.205183
   P      3.424585     -8.539556     20.580183
   S      6.845440     -6.421013     19.534183
   A      5.168195     -2.523084     17.520183
   P      7.454661     -5.464011     23.140183
   S      9.188825     -1.833151     22.094183
   C      5.926558     -0.170643     20.325183
   P      9.184479     -0.698697     25.700183
   S      8.682260      3.293576     24.654183
   C      5.038873      2.930186     22.885183
   P      8.065726      4.245884     28.260183
   S      5.486316      7.334106     27.214183
   T      2.808013      4.748307     25.227183
   P      4.453020      7.802406     30.820183
   S      0.614037      9.007676     29.774183
   T     -0.242830      5.384772     27.787183
   P     -0.508486      8.843528     33.380183
   S     -4.390168      7.783803     32.334183
   T     -3.153992      4.272176     30.347183
   P     -5.246105      7.039238     35.940183
   S     -7.940075      4.050427     34.894183
   G     -5.410335      0.468173     32.817183
   P     -8.258111      2.961456     38.500183
   S     -8.910440     -1.009052     37.454183
   T     -5.202945     -1.346899     35.467183
   P     -8.589765     -2.097248     41.060183
   S     -6.993678     -5.790888     40.014183
   A     -2.892547     -4.701058     38.000183
   P     -6.135939     -6.533376     43.620183
   S     -2.797361     -8.779343     42.574183
   T     -0.946819     -5.548994     40.587183
